test/networks/trafo15_lvnetwork3.dss
Clear 

Set DefaultBaseFrequency=50 

! Swing or Source Bar 
New circuit.trafo15_lvnetwork3_1 phases=3 pu=1.0 basekv=10.0 bus1=mv_import_joint_trafo15_lvnetwork3 

! Trafo XFMRCodes 
Redirect XFMRCode.dss 

! Trafo 
New Transformer.transformer91 Xfmrcode=testtrafotype Buses=[mv_import_joint_trafo15_lvnetwork3  lvjoint93.1.2.3] kVs=[10.0 0.4] 

! LineCodes 
Redirect LineCode.dss 

! Lines 
New Line.lv_cable_trafo15_lvnetwork3_2_main_grid Phases=4 Bus1=lvjoint93.1.2.3.0 Bus2=lv_node_trafo15_lvnetwork3_2.1.2.3.4 LineCode=lv_line Length=31.163215173721948 Units=m 
New Line.lv_cable_trafo15_lvnetwork3_3_main_grid Phases=4 Bus1=lv_node_trafo15_lvnetwork3_2.1.2.3.4 Bus2=lv_node_trafo15_lvnetwork3_3.1.2.3.4 LineCode=lv_line Length=82.73923482306128 Units=m 
New Line.lv_cable_trafo15_lvnetwork3_4_main_grid Phases=4 Bus1=lv_node_trafo15_lvnetwork3_3.1.2.3.4 Bus2=lv_node_trafo15_lvnetwork3_4.1.2.3.4 LineCode=lv_line Length=51.60828685649462 Units=m 
New Line.lv_cable_trafo15_lvnetwork3_to_home_3_arch4 Phases=4 Bus1=lv_node_trafo15_lvnetwork3_4.1.2.3.4 Bus2=1xhome1851.1.2.3.4 LineCode=lv_line_to_home Length=1.7991478699514525 Units=m 
New Line.lv_cable_trafo15_lvnetwork3_5_main_grid Phases=4 Bus1=lv_node_trafo15_lvnetwork3_4.1.2.3.4 Bus2=lv_node_trafo15_lvnetwork3_5.1.2.3.4 LineCode=lv_line Length=3.170867346198266 Units=m 
New Line.lv_cable_trafo15_lvnetwork3_to_home_4_arch4 Phases=4 Bus1=lv_node_trafo15_lvnetwork3_5.1.2.3.4 Bus2=1xhome1852.1.2.3.4 LineCode=lv_line_to_home Length=13.585663991036585 Units=m 
New Line.lv_cable_trafo15_lvnetwork3_6_main_grid Phases=4 Bus1=lv_node_trafo15_lvnetwork3_5.1.2.3.4 Bus2=lv_node_trafo15_lvnetwork3_6.1.2.3.4 LineCode=lv_line Length=41.063731263336585 Units=m 
New Line.lv_cable_trafo15_lvnetwork3_to_home_2_arch4 Phases=4 Bus1=lv_node_trafo15_lvnetwork3_6.1.2.3.4 Bus2=1xhome1850.1.2.3.4 LineCode=lv_line_to_home Length=5.899571380215485 Units=m 
New Line.lv_cable_trafo15_lvnetwork3_7_main_grid Phases=4 Bus1=lv_node_trafo15_lvnetwork3_6.1.2.3.4 Bus2=lv_node_trafo15_lvnetwork3_7.1.2.3.4 LineCode=lv_line Length=0.3479844238376522 Units=m 
New Line.lv_cable_trafo15_lvnetwork3_to_home_1_arch4 Phases=4 Bus1=lv_node_trafo15_lvnetwork3_7.1.2.3.4 Bus2=1xhome1849.1.2.3.4 LineCode=lv_line_to_home Length=5.899575310217013 Units=m 
New Line.lv_cable_trafo15_lvnetwork3_8_main_grid Phases=4 Bus1=lv_node_trafo15_lvnetwork3_7.1.2.3.4 Bus2=lv_node_trafo15_lvnetwork3_8.1.2.3.4 LineCode=lv_line Length=13.27693222093849 Units=m 
New Line.lv_cable_trafo15_lvnetwork3_to_home_0_arch4 Phases=4 Bus1=lv_node_trafo15_lvnetwork3_8.1.2.3.4 Bus2=1xhome1848.1.2.3.4 LineCode=lv_line_to_home Length=5.900100438767697 Units=m 
New Line.lv_cable_trafo15_lvnetwork3_9_main_grid Phases=4 Bus1=lv_node_trafo15_lvnetwork3_8.1.2.3.4 Bus2=lv_node_trafo15_lvnetwork3_9.1.2.3.4 LineCode=lv_line Length=11.467319339959033 Units=m 
New Line.lv_cable_trafo15_lvnetwork3_10_main_grid Phases=4 Bus1=lv_node_trafo15_lvnetwork3_9.1.2.3.4 Bus2=lv_node_trafo15_lvnetwork3_10.1.2.3.4 LineCode=lv_line Length=4.324338453724712 Units=m 
New Line.lv_cable_trafo15_lvnetwork3_to_home_5_arch4 Phases=4 Bus1=lv_node_trafo15_lvnetwork3_10.1.2.3.4 Bus2=1xhome1853.1.2.3.4 LineCode=lv_line_to_home Length=4.100166460056191 Units=m 
New Line.lv_cable_trafo15_lvnetwork3_11_main_grid Phases=4 Bus1=lv_node_trafo15_lvnetwork3_10.1.2.3.4 Bus2=lv_node_trafo15_lvnetwork3_11.1.2.3.4 LineCode=lv_line Length=26.913853457924503 Units=m 
New Line.lv_cable_trafo15_lvnetwork3_12_main_grid Phases=4 Bus1=lv_node_trafo15_lvnetwork3_11.1.2.3.4 Bus2=lv_node_trafo15_lvnetwork3_12.1.2.3.4 LineCode=lv_line Length=72.6178786082377 Units=m 

! Load Definitions 
New Load.1xhome1851_Ph1 Bus1=1xhome1851.1.4 Phases=1 Conn=wye Model=1 kV=0.23 kW=1 kvar=0.0 
New Load.1xhome1851_Ph2 Bus1=1xhome1851.2.4 Phases=1 Conn=wye Model=1 kV=0.23 kW=1 kvar=0.0 
New Load.1xhome1851_Ph3 Bus1=1xhome1851.3.4 Phases=1 Conn=wye Model=1 kV=0.23 kW=1 kvar=0.0 
New Load.1xhome1852_Ph1 Bus1=1xhome1852.1.4 Phases=1 Conn=wye Model=1 kV=0.23 kW=1 kvar=0.0 
New Load.1xhome1852_Ph2 Bus1=1xhome1852.2.4 Phases=1 Conn=wye Model=1 kV=0.23 kW=1 kvar=0.0 
New Load.1xhome1852_Ph3 Bus1=1xhome1852.3.4 Phases=1 Conn=wye Model=1 kV=0.23 kW=1 kvar=0.0 
New Load.1xhome1850_Ph1 Bus1=1xhome1850.1.4 Phases=1 Conn=wye Model=1 kV=0.23 kW=1 kvar=0.0 
New Load.1xhome1850_Ph2 Bus1=1xhome1850.2.4 Phases=1 Conn=wye Model=1 kV=0.23 kW=1 kvar=0.0 
New Load.1xhome1850_Ph3 Bus1=1xhome1850.3.4 Phases=1 Conn=wye Model=1 kV=0.23 kW=1 kvar=0.0 
New Load.1xhome1849_Ph1 Bus1=1xhome1849.1.4 Phases=1 Conn=wye Model=1 kV=0.23 kW=1 kvar=0.0 
New Load.1xhome1849_Ph2 Bus1=1xhome1849.2.4 Phases=1 Conn=wye Model=1 kV=0.23 kW=1 kvar=0.0 
New Load.1xhome1849_Ph3 Bus1=1xhome1849.3.4 Phases=1 Conn=wye Model=1 kV=0.23 kW=1 kvar=0.0 
New Load.1xhome1848_Ph1 Bus1=1xhome1848.1.4 Phases=1 Conn=wye Model=1 kV=0.23 kW=1 kvar=0.0 
New Load.1xhome1848_Ph2 Bus1=1xhome1848.2.4 Phases=1 Conn=wye Model=1 kV=0.23 kW=1 kvar=0.0 
New Load.1xhome1848_Ph3 Bus1=1xhome1848.3.4 Phases=1 Conn=wye Model=1 kV=0.23 kW=1 kvar=0.0 
New Load.1xhome1853_Ph1 Bus1=1xhome1853.1.4 Phases=1 Conn=wye Model=1 kV=0.23 kW=1 kvar=0.0 
New Load.1xhome1853_Ph2 Bus1=1xhome1853.2.4 Phases=1 Conn=wye Model=1 kV=0.23 kW=1 kvar=0.0 
New Load.1xhome1853_Ph3 Bus1=1xhome1853.3.4 Phases=1 Conn=wye Model=1 kV=0.23 kW=1 kvar=0.0 

! Final Configurations 
Set VoltageBases = [10.0, 0.4] 
CalcVoltageBases 
SetkVBase Bus=mv_import_joint_trafo15_lvnetwork3 kVLL=10.0
SetkVBase Bus=lvjoint93 kVLL=0.4

! Solve
Set mode=snapshot
! Solve
